powerfulcases/cases/matpower/case2746wp/case2746wp.raw
0, 100, 33, 0, 0, 60  / 28-Jan-2026 21:51:34 - MATPOWER 8.1


     1, 'BUS 1       ',       220, 1,    1,    1, 1,   1.1003391, -0.61480726, 1.11, 0.95, 1.11, 0.95
     2, 'BUS 2       ',       220, 1,    1,    1, 1,   1.1017662,   1.2131549, 1.11, 0.95, 1.11, 0.95
     3, 'BUS 3       ',       220, 1,    1,    1, 1,   1.0645289,  -26.339776, 1.11, 0.95, 1.11, 0.95
     4, 'BUS 4       ',       220, 1,    1,    1, 1,   1.0850159,  -6.0862751, 1.11, 0.95, 1.11, 0.95
     5, 'BUS 5       ',       220, 1,    1,    1, 1,   1.0850783,  -6.0889889, 1.11, 0.95, 1.11, 0.95
     6, 'BUS 6       ',       220, 1,    1,    1, 1,    1.059595,  -17.220536, 1.11, 0.95, 1.11, 0.95
     7, 'BUS 7       ',       220, 1,    1,    1, 1,   1.0597417,  -17.210267, 1.11, 0.95, 1.11, 0.95
     8, 'BUS 8       ',       400, 1,    1,    1, 1,   1.0286868,  -13.591482, 1.05, 0.95, 1.05, 0.95
     9, 'BUS 9       ',       400, 1,    1,    1, 1,   1.0287027,  -13.586305, 1.05, 0.95, 1.05, 0.95
    10, 'BUS 10      ',       220, 1,    1,    1, 1,   1.0408993,  -17.565546, 1.11, 0.95, 1.11, 0.95
    11, 'BUS 11      ',       220, 1,    1,    1, 1,   1.0407987,  -17.552694, 1.11, 0.95, 1.11, 0.95
    12, 'BUS 12      ',       220, 1,    1,    1, 1,   1.0408325,  -17.544154, 1.11, 0.95, 1.11, 0.95
    13, 'BUS 13      ',       400, 1,    1,    1, 1,    1.027382,  -11.769431, 1.05, 0.95, 1.05, 0.95
    14, 'BUS 14      ',       400, 1,    1,    1, 1,   1.0274267,  -11.759591, 1.05, 0.95, 1.05, 0.95
    15, 'BUS 15      ',       400, 1,    1,    1, 1,   1.0277821,  -16.636616, 1.05, 0.95, 1.05, 0.95
    16, 'BUS 16      ',       400, 1,    1,    1, 1,   1.0277821,  -16.636616, 1.05, 0.95, 1.05, 0.95
    17, 'BUS 17      ',       220, 2,    1,    1, 1,   1.1051114,   -21.25728, 1.11, 0.95, 1.11, 0.95
    18, 'BUS 18      ',       220, 2,    1,    1, 1,   1.1051329,  -21.256172, 1.11, 0.95, 1.11, 0.95
    19, 'BUS 19      ',       220, 1,    1,    1, 1,   1.0899007,  -4.9335602, 1.11, 0.95, 1.11, 0.95
    20, 'BUS 20      ',       220, 1,    1,    1, 1,   1.0899369,  -4.9324552, 1.11, 0.95, 1.11, 0.95
    21, 'BUS 21      ',       220, 1,    1,    1, 1,   1.0605639,    -19.1108, 1.11, 0.95, 1.11, 0.95
    22, 'BUS 22      ',       220, 1,    1,    1, 1,   1.0604975,  -19.112544, 1.11, 0.95, 1.11, 0.95
    23, 'BUS 23      ',       220, 1,    1,    1, 1,   1.0441797,  -17.458847, 1.11, 0.95, 1.11, 0.95
    24, 'BUS 24      ',       220, 1,    1,    1, 1,    1.091933,  -2.8028486, 1.11, 0.95, 1.11, 0.95
    25, 'BUS 25      ',       400, 1,    1,    1, 1,   1.0154431,  -13.879116, 1.05, 0.95, 1.05, 0.95
    26, 'BUS 26      ',       220, 2,    1,    1, 1,        1.11, -0.25095024, 1.11, 0.95, 1.11, 0.95
    27, 'BUS 27      ',       220, 2,    1,    1, 1,        1.11,   1.4731337, 1.11, 0.95, 1.11, 0.95
    28, 'BUS 28      ',       400, 3,    1,    1, 1,   1.0460529,           0, 1.05, 0.95, 1.05, 0.95
    29, 'BUS 29      ',       400, 2,    1,    1, 1,   1.0460925,  0.00572232, 1.05, 0.95, 1.05, 0.95
    30, 'BUS 30      ',       220, 1,    1,    1, 1,    1.048206,  -18.395467, 1.11, 0.95, 1.11, 0.95
    31, 'BUS 31      ',       400, 1,    1,    1, 1,    1.045761,  -1.4350337, 1.05, 0.95, 1.05, 0.95
    32, 'BUS 32      ',       220, 1,    1,    1, 1,   1.0385822,  -17.912484, 1.11, 0.95, 1.11, 0.95
    33, 'BUS 33      ',       220, 1,    1,    1, 1,   1.0919388,  -2.8017966, 1.11, 0.95, 1.11, 0.95
    34, 'BUS 34      ',       220, 1,    1,    1, 1,   1.0925699,  -9.5096398, 1.11, 0.95, 1.11, 0.95
    35, 'BUS 35      ',       220, 1,    1,    2, 1,   1.0894807,  -13.144346, 1.11, 0.95, 1.11, 0.95
    36, 'BUS 36      ',       220, 1,    1,    2, 1,   1.0925005,  -12.843932, 1.11, 0.95, 1.11, 0.95
    37, 'BUS 37      ',       220, 1,    1,    2, 1,   1.0970263,  -11.092748, 1.11, 0.95, 1.11, 0.95
    38, 'BUS 38      ',       220, 1,    1,    2, 1,   1.0970174,  -11.097136, 1.11, 0.95, 1.11, 0.95
    39, 'BUS 39      ',       220, 1,    1,    2, 1,   1.0760617,  -15.995023, 1.11, 0.95, 1.11, 0.95
    40, 'BUS 40      ',       220, 1,    1,    2, 1,   1.1040849,  -9.3848203, 1.11, 0.95, 1.11, 0.95
    41, 'BUS 41      ',       220, 1,    1,    2, 1,   1.1040405,  -9.3830473, 1.11, 0.95, 1.11, 0.95
    42, 'BUS 42      ',       400, 1,    1,    2, 1,   1.0435696,  -9.7361406, 1.05, 0.95, 1.05, 0.95
    43, 'BUS 43      ',       220, 2,    1,    2, 1,   1.1099957,  -9.8167066, 1.11, 0.95, 1.11, 0.95
    44, 'BUS 44      ',       220, 2,    1,    2, 1,        1.11,  -9.7892115, 1.11, 0.95, 1.11, 0.95
    45, 'BUS 45      ',       400, 2,    1,    2, 1,   1.0486321,  -10.600385, 1.05, 0.95, 1.05, 0.95
    46, 'BUS 46      ',       400, 1,    1,    2, 1,    1.048661,  -10.601895, 1.05, 0.95, 1.05, 0.95
    47, 'BUS 47      ',       220, 1,    1,    2, 1,   1.1003191,  -9.9747468, 1.11, 0.95, 1.11, 0.95
    48, 'BUS 48      ',       400, 1,    1,    2, 1,   1.0353007,  -15.497399, 1.05, 0.95, 1.05, 0.95
    49, 'BUS 49      ',       400, 1,    1,    2, 1,   1.0352697,  -15.506312, 1.05, 0.95, 1.05, 0.95
    50, 'BUS 50      ',       400, 1,    1,    2, 1,        1.05,  -11.729501, 1.05, 0.95, 1.05, 0.95
    51, 'BUS 51      ',       220, 1,    1,    2, 1,   1.0831843,  -14.831927, 1.11, 0.95, 1.11, 0.95
    52, 'BUS 52      ',       220, 1,    1,    2, 1,   1.0831697,   -14.83156, 1.11, 0.95, 1.11, 0.95
    53, 'BUS 53      ',       400, 1,    1,    2, 1,   1.0439979,  -11.198006, 1.05, 0.95, 1.05, 0.95
    54, 'BUS 54      ',       400, 1,    1,    2, 1,   1.0439983,  -11.196343, 1.05, 0.95, 1.05, 0.95
    55, 'BUS 55      ',       220, 2,    1,    2, 1,   1.1026056,  -9.4089303, 1.11, 0.95, 1.11, 0.95
    56, 'BUS 56      ',       220, 2,    1,    2, 1,   1.1025184,   -9.405703, 1.11, 0.95, 1.11, 0.95
    57, 'BUS 57      ',       400, 2,    1,    2, 1,   1.0456443,  -10.170777, 1.05, 0.95, 1.05, 0.95
    58, 'BUS 58      ',       400, 2,    1,    2, 1,   1.0456662,  -10.175736, 1.05, 0.95, 1.05, 0.95
    59, 'BUS 59      ',       220, 2,    1,    2, 1,   1.1017247,   -11.30084, 1.11, 0.95, 1.11, 0.95
    60, 'BUS 60      ',       220, 1,    1,    2, 1,   1.1017324,  -11.300903, 1.11, 0.95, 1.11, 0.95
    61, 'BUS 61      ',       220, 1,    1,    2, 1,   1.1005278,  -10.134063, 1.11, 0.95, 1.11, 0.95
    62, 'BUS 62      ',       220, 1,    1,    2, 1,   1.1036005,  -11.047572, 1.11, 0.95, 1.11, 0.95
    63, 'BUS 63      ',       220, 1,    1,    2, 1,   1.1035983,  -11.050757, 1.11, 0.95, 1.11, 0.95
    64, 'BUS 64      ',       400, 1,    1,    2, 1,   1.0468475,  -11.759437, 1.05, 0.95, 1.05, 0.95
    65, 'BUS 65      ',       400, 1,    1,    2, 1,    1.046831,  -11.771438, 1.05, 0.95, 1.05, 0.95
    66, 'BUS 66      ',       220, 1,    1,    2, 1,   1.0893159,  -12.668676, 1.11, 0.95, 1.11, 0.95
    67, 'BUS 67      ',       220, 1,    1,    2, 1,   1.0914437,  -12.423754, 1.11, 0.95, 1.11, 0.95
    68, 'BUS 68      ',       220, 1,    1,    2, 1,    1.083607,  -14.320478, 1.11, 0.95, 1.11, 0.95
    69, 'BUS 69      ',       220, 1,    1,    3, 1,   1.1005323,  -4.4705794, 1.11, 0.95, 1.11, 0.95
    70, 'BUS 70      ',       220, 1,    1,    3, 1,   1.0980231,  -9.7009113, 1.11, 0.95, 1.11, 0.95
    71, 'BUS 71      ',       220, 1,    1,    3, 1,   1.0979915,   -9.703589, 1.11, 0.95, 1.11, 0.95
    72, 'BUS 72      ',       220, 1,    1,    3, 1,   1.1059097,  -4.3482203, 1.11, 0.95, 1.11, 0.95
    73, 'BUS 73      ',       220, 1,    1,    3, 1,   1.1059616,   -4.339125, 1.11, 0.95, 1.11, 0.95
    74, 'BUS 74      ',       220, 1,    1,    3, 1,   1.1013537,  -4.7646624, 1.11, 0.95, 1.11, 0.95
    75, 'BUS 75      ',       220, 1,    1,    3, 1,   1.1013148,  -4.7687846, 1.11, 0.95, 1.11, 0.95
    76, 'BUS 76      ',       220, 1,    1,    3, 1,   1.1084923,  -3.4136449, 1.11, 0.95, 1.11, 0.95
    77, 'BUS 77      ',       220, 1,    1,    3, 1,   1.1084612,  -3.4216098, 1.11, 0.95, 1.11, 0.95
    78, 'BUS 78      ',       220, 2,    1,    3, 1,        1.11,  -3.7286027, 1.11, 0.95, 1.11, 0.95
    79, 'BUS 79      ',       220, 2,    1,    3, 1,   1.1091061,  -3.9026747, 1.11, 0.95, 1.11, 0.95
    80, 'BUS 80      ',       220, 1,    1,    3, 1,   1.0984814,  -5.1340225, 1.11, 0.95, 1.11, 0.95
    81, 'BUS 81      ',       220, 1,    1,    3, 1,   1.0984976,  -5.1327611, 1.11, 0.95, 1.11, 0.95
    82, 'BUS 82      ',       400, 2,    1,    3, 1,   1.0434596,  -3.6593665, 1.05, 0.95, 1.05, 0.95
    83, 'BUS 83      ',       220, 1,    1,    3, 1,   1.1085008,   -6.506818, 1.11, 0.95, 1.11, 0.95
    84, 'BUS 84      ',       220, 1,    1,    3, 1,   1.1065315,  -3.9305775, 1.11, 0.95, 1.11, 0.95
    85, 'BUS 85      ',       220, 1,    1,    3, 1,   1.1065344,  -3.9324762, 1.11, 0.95, 1.11, 0.95
    86, 'BUS 86      ',       220, 1,    1,    3, 1,   1.1011233,   -4.342548, 1.11, 0.95, 1.11, 0.95
    87, 'BUS 87      ',       220, 1,    1,    3, 1,   1.1010914,  -4.3484899, 1.11, 0.95, 1.11, 0.95
    88, 'BUS 88      ',       220, 1,    1,    3, 1,   1.1040285,  -3.8682504, 1.11, 0.95, 1.11, 0.95
    89, 'BUS 89      ',       220, 1,    1,    3, 1,   1.1040076,  -3.8696159, 1.11, 0.95, 1.11, 0.95
    90, 'BUS 90      ',       220, 1,    1,    3, 1,   1.1043527,  -3.8990518, 1.11, 0.95, 1.11, 0.95
    91, 'BUS 91      ',       220, 1,    1,    3, 1,   1.1043307,   -3.904573, 1.11, 0.95, 1.11, 0.95
    92, 'BUS 92      ',       400, 1,    1,    3, 1,   1.0455896,  -2.2785277, 1.05, 0.95, 1.05, 0.95
    93, 'BUS 93      ',       400, 1,    1,    3, 1,   1.0455942,  -2.2803837, 1.05, 0.95, 1.05, 0.95
    94, 'BUS 94      ',       220, 1,    1,    3, 1,   1.1078409,  -3.6402286, 1.11, 0.95, 1.11, 0.95
    95, 'BUS 95      ',       220, 1,    1,    3, 1,   1.1078802,  -3.6395637, 1.11, 0.95, 1.11, 0.95
    96, 'BUS 96      ',       220, 1,    1,    3, 1,   1.1052279,  -5.5721529, 1.11, 0.95, 1.11, 0.95
    97, 'BUS 97      ',       220, 1,    1,    3, 1,   1.1052541,  -5.5767843, 1.11, 0.95, 1.11, 0.95
    98, 'BUS 98      ',       220, 1,    1,    3, 1,   1.1054331,  -4.6685289, 1.11, 0.95, 1.11, 0.95
    99, 'BUS 99      ',       220, 1,    1,    3, 1,   1.1054199,  -4.6735493, 1.11, 0.95, 1.11, 0.95
   100, 'BUS 100     ',       220, 1,    1,    3, 1,    1.098073,  -9.6845182, 1.11, 0.95, 1.11, 0.95
   101, 'BUS 101     ',       220, 1,    1,    3, 1,   1.0980546,  -9.6842434, 1.11, 0.95, 1.11, 0.95
   102, 'BUS 102     ',       220, 1,    1,    3, 1,   1.1036484,  -4.4810497, 1.11, 0.95, 1.11, 0.95
   103, 'BUS 103     ',       220, 1,    1,    3, 1,   1.1035819,  -4.4911311, 1.11, 0.95, 1.11, 0.95
   104, 'BUS 104     ',       220, 2,    1,    3, 1,        1.11,  -3.3754895, 1.11, 0.95, 1.11, 0.95
   105, 'BUS 105     ',       220, 2,    1,    3, 1,   1.1099947,  -3.3760543, 1.11, 0.95, 1.11, 0.95
   106, 'BUS 106     ',       220, 2,    1,    3, 1,   1.1076732,  -3.5666718, 1.11, 0.95, 1.11, 0.95
   107, 'BUS 107     ',       220, 2,    1,    3, 1,   1.1075967,  -3.5663387, 1.11, 0.95, 1.11, 0.95
   108, 'BUS 108     ',       220, 1,    1,    3, 1,   1.1033476,  -5.1479288, 1.11, 0.95, 1.11, 0.95
   109, 'BUS 109     ',       220, 1,    1,    3, 1,   1.1033898,  -5.1544483, 1.11, 0.95, 1.11, 0.95
   110, 'BUS 110     ',       220, 1,    1,    3, 1,   1.1035377,  -6.3893921, 1.11, 0.95, 1.11, 0.95
   111, 'BUS 111     ',       220, 1,    1,    3, 1,   1.0950251,  -5.1667375, 1.11, 0.95, 1.11, 0.95
   112, 'BUS 112     ',       220, 1,    1,    3, 1,    1.095049,  -5.1665381, 1.11, 0.95, 1.11, 0.95
   113, 'BUS 113     ',       220, 1,    1,    3, 1,   1.0995271,   -5.044646, 1.11, 0.95, 1.11, 0.95
   114, 'BUS 114     ',       220, 1,    1,    3, 1,   1.0995945,  -5.0347076, 1.11, 0.95, 1.11, 0.95
   115, 'BUS 115     ',       400, 1,    1,    3, 1,   1.0439081,  -5.9525365, 1.05, 0.95, 1.05, 0.95
   116, 'BUS 116     ',       220, 2,    1,    3, 1,   1.1077452,  -4.3817951, 1.11, 0.95, 1.11, 0.95
   117, 'BUS 117     ',       220, 2,    1,    3, 1,   1.1077753,  -4.3750278, 1.11, 0.95, 1.11, 0.95
   118, 'BUS 118     ',       220, 2,    1,    3, 1,   1.1078928,  -5.7187611, 1.11, 0.95, 1.11, 0.95
   119, 'BUS 119     ',       220, 1,    1,    3, 1,   1.1078551,  -5.7307042, 1.11, 0.95, 1.11, 0.95
   120, 'BUS 120     ',       400, 1,    1,    3, 1,   1.0486473,  -10.372175, 1.05, 0.95, 1.05, 0.95
   121, 'BUS 121     ',       400, 1,    1,    3, 1,    1.048686,  -10.364416, 1.05, 0.95, 1.05, 0.95
   122, 'BUS 122     ',       400, 1,    1,    3, 1,   1.0499922,  -6.1506754, 1.05, 0.95, 1.05, 0.95
   123, 'BUS 123     ',       400, 1,    1,    3, 1,        1.05,  -6.1454067, 1.05, 0.95, 1.05, 0.95
   124, 'BUS 124     ',       220, 1,    1,    3, 1,   1.1038618,  -6.4994385, 1.11, 0.95, 1.11, 0.95
   125, 'BUS 125     ',       220, 2,    1,    3, 1,   1.1083176,  -3.9535039, 1.11, 0.95, 1.11, 0.95
   126, 'BUS 126     ',       220, 2,    1,    3, 1,   1.1082749,  -3.9550628, 1.11, 0.95, 1.11, 0.95
   127, 'BUS 127     ',       400, 2,    1,    3, 1,   1.0426336,  -5.1240534, 1.05, 0.95, 1.05, 0.95
   128, 'BUS 128     ',       400, 1,    1,    3, 1,   1.0426497,  -5.1264675, 1.05, 0.95, 1.05, 0.95
   129, 'BUS 129     ',       220, 1,    1,    3, 1,   1.1003489,  -4.4658462, 1.11, 0.95, 1.11, 0.95
   130, 'BUS 130     ',       220, 1,    1,    3, 1,   1.1003745,  -4.4621846, 1.11, 0.95, 1.11, 0.95
   131, 'BUS 131     ',       220, 1,    1,    3, 1,   1.1026419,  -4.1537245, 1.11, 0.95, 1.11, 0.95
   132, 'BUS 132     ',       220, 2,    1,    3, 1,        1.11,  -2.6939208, 1.11, 0.95, 1.11, 0.95
   133, 'BUS 133     ',       220, 2,    1,    3, 1,        1.11,  -3.0673769, 1.11, 0.95, 1.11, 0.95
   134, 'BUS 134     ',       220, 2,    1,    4, 1,        1.11,  -10.714442, 1.11, 0.95, 1.11, 0.95
   135, 'BUS 135     ',       220, 2,    1,    4, 1,   1.1098762,  -10.723949, 1.11, 0.95, 1.11, 0.95
   136, 'BUS 136     ',       220, 1,    1,    4, 1,   1.0804168,  -12.976961, 1.11, 0.95, 1.11, 0.95
   137, 'BUS 137     ',       220, 1,    1,    4, 1,   1.0862695,  -11.160281, 1.11, 0.95, 1.11, 0.95
   138, 'BUS 138     ',       400, 1,    1,    4, 1,   1.0208082,  -9.8994847, 1.05, 0.95, 1.05, 0.95
   139, 'BUS 139     ',       400, 1,    1,    4, 1,   1.0208188,  -9.9009404, 1.05, 0.95, 1.05, 0.95
   140, 'BUS 140     ',       220, 1,    1,    4, 1,   1.0929466,  -21.517302, 1.11, 0.95, 1.11, 0.95
   141, 'BUS 141     ',       220, 1,    1,    4, 1,   1.0936734,  -27.850208, 1.11, 0.95, 1.11, 0.95
   142, 'BUS 142     ',       220, 1,    1,    4, 1,   1.0936734,  -27.850208, 1.11, 0.95, 1.11, 0.95
   143, 'BUS 143     ',       220, 1,    1,    4, 1,   1.0979678,   -24.81337, 1.11, 0.95, 1.11, 0.95
   144, 'BUS 144     ',       220, 1,    1,    4, 1,   1.0967448,  -13.511963, 1.11, 0.95, 1.11, 0.95
   145, 'BUS 145     ',       220, 1,    1,    4, 1,   1.0967448,  -13.511963, 1.11, 0.95, 1.11, 0.95
   146, 'BUS 146     ',       220, 2,    1,    4, 1,   1.1096665,  -13.527397, 1.11, 0.95, 1.11, 0.95
   147, 'BUS 147     ',       220, 2,    1,    4, 1,   1.1096461,  -13.538207, 1.11, 0.95, 1.11, 0.95
   148, 'BUS 148     ',       220, 2,    1,    4, 1,        1.11,  -25.675039, 1.11, 0.95, 1.11, 0.95
   149, 'BUS 149     ',       220, 1,    1,    4, 1,   1.1099958,  -25.669786, 1.11, 0.95, 1.11, 0.95
   150, 'BUS 150     ',       400, 2,    1,    4, 1,   1.0367199,   -22.19321, 1.05, 0.95, 1.05, 0.95
   151, 'BUS 151     ',       400, 2,    1,    4, 1,   1.0367522,  -22.189004, 1.05, 0.95, 1.05, 0.95
   152, 'BUS 152     ',       220, 1,    1,    4, 1,   1.0577636,  -21.642084, 1.11, 0.95, 1.11, 0.95
   153, 'BUS 153     ',       220, 1,    1,    4, 1,   1.0746088,  -20.259864, 1.11, 0.95, 1.11, 0.95
   154, 'BUS 154     ',       220, 1,    1,    4, 1,   1.0746911,  -20.253562, 1.11, 0.95, 1.11, 0.95
   155, 'BUS 155     ',       220, 2,    1,    4, 1,        1.11,  -7.0014325, 1.11, 0.95, 1.11, 0.95
   156, 'BUS 156     ',       220, 2,    1,    4, 1,        1.11,  -8.0966014, 1.11, 0.95, 1.11, 0.95
   157, 'BUS 157     ',       220, 1,    1,    4, 1,        1.11,  -7.0014325, 1.11, 0.95, 1.11, 0.95
   158, 'BUS 158     ',       400, 1,    1,    4, 1,   1.0349647,  -6.6407189, 1.05, 0.95, 1.05, 0.95
   159, 'BUS 159     ',       400, 2,    1,    4, 1,   1.0350106,  -6.6353335, 1.05, 0.95, 1.05, 0.95
   160, 'BUS 160     ',       220, 1,    1,    4, 1,   1.0920139,  -28.060831, 1.11, 0.95, 1.11, 0.95
   161, 'BUS 161     ',       220, 1,    1,    4, 1,   1.0920139,  -28.060831, 1.11, 0.95, 1.11, 0.95
   162, 'BUS 162     ',       400, 1,    1,    4, 1,   1.0178137,  -10.878788, 1.05, 0.95, 1.05, 0.95
   163, 'BUS 163     ',       400, 1,    1,    4, 1,   1.0249576,  -9.3400021, 1.05, 0.95, 1.05, 0.95
   164, 'BUS 164     ',       400, 1,    1,    4, 1,    1.024957,  -9.3420899, 1.05, 0.95, 1.05, 0.95
   165, 'BUS 165     ',       220, 2,    1,    4, 1,        1.11,  -13.624283, 1.11, 0.95, 1.11, 0.95
   166, 'BUS 166     ',       220, 2,    1,    4, 1,   1.1099978,  -13.642791, 1.11, 0.95, 1.11, 0.95
   167, 'BUS 167     ',       220, 1,    1,    4, 1,        1.11,  -13.624283, 1.11, 0.95, 1.11, 0.95
   168, 'BUS 168     ',       220, 1,    1,    4, 1,    1.080865,  -26.369943, 1.11, 0.95, 1.11, 0.95
   169, 'BUS 169     ',       220, 1,    1,    4, 1,   1.0928314,  -27.962378, 1.11, 0.95, 1.11, 0.95
   170, 'BUS 170     ',       220, 1,    1,    4, 1,   1.0863977,  -22.458467, 1.11, 0.95, 1.11, 0.95
   171, 'BUS 171     ',       220, 1,    1,    4, 1,   1.0863007,  -22.451991, 1.11, 0.95, 1.11, 0.95
   172, 'BUS 172     ',       400, 1,    1,    4, 1,   1.0057335,  -23.496497, 1.05, 0.95, 1.05, 0.95
   173, 'BUS 173     ',       400, 1,    1,    4, 1,   1.0057335,  -23.496497, 1.05, 0.95, 1.05, 0.95
   174, 'BUS 174     ',       220, 1,    1,    4, 1,   1.0476566,  -17.892455, 1.11, 0.95, 1.11, 0.95
   175, 'BUS 175     ',       220, 1,    1,    4, 1,   1.0476686,  -17.885603, 1.11, 0.95, 1.11, 0.95
   176, 'BUS 176     ',       220, 1,    1,    4, 1,    1.084794,  -22.987556, 1.11, 0.95, 1.11, 0.95
   177, 'BUS 177     ',       220, 1,    1,    4, 1,   1.0867231,  -12.489339, 1.11, 0.95, 1.11, 0.95
   178, 'BUS 178     ',       220, 1,    1,    4, 1,   1.0867623,  -12.483073, 1.11, 0.95, 1.11, 0.95
   179, 'BUS 179     ',       220, 1,    1,    4, 1,   1.0899616,  -11.958749, 1.11, 0.95, 1.11, 0.95
   180, 'BUS 180     ',       220, 1,    1,    4, 1,   1.0899616,  -11.958749, 1.11, 0.95, 1.11, 0.95
   181, 'BUS 181     ',       220, 1,    1,    4, 1,   1.0449477,  -19.418635, 1.11, 0.95, 1.11, 0.95
   182, 'BUS 182     ',       220, 1,    1,    5, 1,   1.0474502,  -21.786143, 1.11, 0.95, 1.11, 0.95
   183, 'BUS 183     ',       220, 1,    1,    5, 1,        1.11,  -23.407235, 1.11, 0.95, 1.11, 0.95
   184, 'BUS 184     ',       400, 1,    1,    5, 1,   1.0362829,  -21.672063, 1.05, 0.95, 1.05, 0.95
   185, 'BUS 185     ',       400, 1,    1,    5, 1,    1.036306,  -21.676526, 1.05, 0.95, 1.05, 0.95
   186, 'BUS 186     ',       400, 1,    1,    5, 1,   1.0181489,  -21.198101, 1.05, 0.95, 1.05, 0.95
   187, 'BUS 187     ',       400, 1,    1,    5, 1,   1.0181684,    -21.2021, 1.05, 0.95, 1.05, 0.95
   188, 'BUS 188     ',       220, 1,    1,    5, 1,   1.0217282,  -25.032232, 1.11, 0.95, 1.11, 0.95
   189, 'BUS 189     ',       220, 1,    1,    5, 1,    1.021804,   -25.03367, 1.11, 0.95, 1.11, 0.95
   190, 'BUS 190     ',       220, 1,    1,    5, 1,   1.0716712,  -22.614136, 1.11, 0.95, 1.11, 0.95
   191, 'BUS 191     ',       220, 1,    1,    5, 1,   1.0715551,  -22.615617, 1.11, 0.95, 1.11, 0.95
   192, 'BUS 192     ',       400, 1,    1,    5, 1,  0.99118643,  -19.908396, 1.05, 0.95, 1.05, 0.95
   193, 'BUS 193     ',       220, 1,    1,    5, 1,   1.0567984,  -20.966479, 1.11, 0.95, 1.11, 0.95
   194, 'BUS 194     ',       220, 1,    1,    5, 1,    1.056876,  -20.962637, 1.11, 0.95, 1.11, 0.95
   195, 'BUS 195     ',       400, 1,    1,    5, 1,   1.0075635,  -23.167247, 1.05, 0.95, 1.05, 0.95
   196, 'BUS 196     ',       400, 1,    1,    5, 1,   1.0075162,  -23.172128, 1.05, 0.95, 1.05, 0.95
   197, 'BUS 197     ',       220, 1,    1,    5, 1,   1.0630659,  -25.644346, 1.11, 0.95, 1.11, 0.95
   198, 'BUS 198     ',       220, 1,    1,    5, 1,   1.0631118,  -25.637578, 1.11, 0.95, 1.11, 0.95
   199, 'BUS 199     ',       400, 1,    1,    5, 1,   1.0382243,  -19.747847, 1.05, 0.95, 1.05, 0.95
   200, 'BUS 200     ',       400, 1,    1,    5, 1,   1.0382491,  -19.742409, 1.05, 0.95, 1.05, 0.95
...
0 / END OF BUS DATA, BEGIN LOAD DATA
    17,  1, 1,    1,    1,        11,        40, 0, 0, 0, 0, 1, 1, 0
    18,  1, 1,    1,    1,        14,        40, 0, 0, 0, 0, 1, 1, 0
    26,  1, 1,    1,    1,    46.738,    72.054, 0, 0, 0, 0, 1, 1, 0
    27,  1, 1,    1,    1,    85.493,    122.06, 0, 0, 0, 0, 1, 1, 0
    28,  1, 1,    1,    1,        60,       110, 0, 0, 0, 0, 1, 1, 0
    29,  1, 1,    1,    1,    60.097,        90, 0, 0, 0, 0, 1, 1, 0
    43,  1, 1,    1,    2,    11.436,         0, 0, 0, 0, 0, 1, 1, 0
    44,  1, 1,    1,    2,        24,         0, 0, 0, 0, 0, 1, 1, 0
    45,  1, 1,    1,    2,        20,         0, 0, 0, 0, 0, 1, 1, 0
    55,  1, 1,    1,    2,        12,         0, 0, 0, 0, 0, 1, 1, 0
    56,  1, 1,    1,    2,    11.436,         0, 0, 0, 0, 0, 1, 1, 0
    57,  1, 1,    1,    2,        12,         0, 0, 0, 0, 0, 1, 1, 0
    58,  1, 1,    1,    2,    11.436,         0, 0, 0, 0, 0, 1, 1, 0
    59,  1, 1,    1,    2,   167.518,        60, 0, 0, 0, 0, 1, 1, 0
    70,  1, 1,    1,    3,     7.123,         0, 0, 0, 0, 0, 1, 1, 0
    71,  1, 1,    1,    3,      8.31,     0.933, 0, 0, 0, 0, 1, 1, 0
    78,  1, 1,    1,    3,        27,        70, 0, 0, 0, 0, 1, 1, 0
    79,  1, 1,    1,    3,         9,        21, 0, 0, 0, 0, 1, 1, 0
    80,  1, 1,    1,    3,    10.328,      2.61, 0, 0, 0, 0, 1, 1, 0
    82,  1, 1,    1,    3,        35,       108, 0, 0, 0, 0, 1, 1, 0
    86,  1, 1,    1,    3,    37.893,    12.351, 0, 0, 0, 0, 1, 1, 0
    98,  1, 1,    1,    3,    16.027,     7.274, 0, 0, 0, 0, 1, 1, 0
    99,  1, 1,    1,    3,     7.764,     0.258, 0, 0, 0, 0, 1, 1, 0
   104,  1, 1,    1,    3,        14,        40, 0, 0, 0, 0, 1, 1, 0
   105,  1, 1,    1,    3,        14,        40, 0, 0, 0, 0, 1, 1, 0
   106,  1, 1,    1,    3,         7,        18, 0, 0, 0, 0, 1, 1, 0
   107,  1, 1,    1,    3,         8,        15, 0, 0, 0, 0, 1, 1, 0
   108,  1, 1,    1,    3,     1.044,         0, 0, 0, 0, 0, 1, 1, 0
   109,  1, 1,    1,    3,     1.259,         0, 0, 0, 0, 0, 1, 1, 0
   117,  1, 1,    1,    3,         8,        15, 0, 0, 0, 0, 1, 1, 0
   118,  1, 1,    1,    3,       5.5,        10, 0, 0, 0, 0, 1, 1, 0
   125,  1, 1,    1,    3,    18.343,    21.865, 0, 0, 0, 0, 1, 1, 0
   126,  1, 1,    1,    3,    28.469,    34.292, 0, 0, 0, 0, 1, 1, 0
   127,  1, 1,    1,    3,        28,        66, 0, 0, 0, 0, 1, 1, 0
   132,  1, 1,    1,    3,         3,        18, 0, 0, 0, 0, 1, 1, 0
   133,  1, 1,    1,    3,         2,         6, 0, 0, 0, 0, 1, 1, 0
   134,  1, 1,    1,    4,    15.447,     12.88, 0, 0, 0, 0, 1, 1, 0
   135,  1, 1,    1,    4,     5.255,    -0.357, 0, 0, 0, 0, 1, 1, 0
   146,  1, 1,    1,    4,    10.954,    -0.465, 0, 0, 0, 0, 1, 1, 0
   147,  1, 1,    1,    4,    10.812,    -0.465, 0, 0, 0, 0, 1, 1, 0
   148,  1, 1,    1,    4,      11.5,      6.86, 0, 0, 0, 0, 1, 1, 0
   149,  1, 1,    1,    4,     1.634,     3.038, 0, 0, 0, 0, 1, 1, 0
   150,  1, 1,    1,    4,     8.087,     -0.38, 0, 0, 0, 0, 1, 1, 0
   151,  1, 1,    1,    4,    16.174,     -0.76, 0, 0, 0, 0, 1, 1, 0
   155,  1, 1,    1,    4,    30.555,    -3.555, 0, 0, 0, 0, 1, 1, 0
   156,  1, 1,    1,    4,    14.679,    -3.566, 0, 0, 0, 0, 1, 1, 0
   159,  1, 1,    1,    4,     7.385,    -1.783, 0, 0, 0, 0, 1, 1, 0
   165,  1, 1,    1,    4,     4.293,    -8.964, 0, 0, 0, 0, 1, 1, 0
   166,  1, 1,    1,    4,    23.077,     7.176, 0, 0, 0, 0, 1, 1, 0
   209,  1, 1,    1,    1,     8.101,       1.5, 0, 0, 0, 0, 1, 1, 0
   210,  1, 1,    1,    1,     8.101,         1, 0, 0, 0, 0, 1, 1, 0
   211,  1, 1,    1,    1,     9.114,         2, 0, 0, 0, 0, 1, 1, 0
   212,  1, 1,    1,    1,     8.911,       7.8, 0, 0, 0, 0, 1, 1, 0
   213,  1, 1,    1,    1,      4.05,         1, 0, 0, 0, 0, 1, 1, 0
   214,  1, 1,    1,    1,     9.619,       2.5, 0, 0, 0, 0, 1, 1, 0
   215,  1, 1,    1,    1,    51.981,      24.3, 0, 0, 0, 0, 1, 1, 0
   216,  1, 1,    1,    1,    22.276,       2.5, 0, 0, 0, 0, 1, 1, 0
   217,  1, 1,    1,    1,    10.126,         2, 0, 0, 0, 0, 1, 1, 0
   218,  1, 1,    1,    1,    11.138,         2, 0, 0, 0, 0, 1, 1, 0
   219,  1, 1,    1,    1,    13.163,       2.5, 0, 0, 0, 0, 1, 1, 0
   220,  1, 1,    1,    1,     9.114,      2.25, 0, 0, 0, 0, 1, 1, 0
   222,  1, 1,    1,    1,    11.138,       2.4, 0, 0, 0, 0, 1, 1, 0
   223,  1, 1,    1,    1,    17.214,       3.1, 0, 0, 0, 0, 1, 1, 0
   224,  1, 1,    1,    1,     1.519,       0.4, 0, 0, 0, 0, 1, 1, 0
   225,  1, 1,    1,    1,     5.265,       0.8, 0, 0, 0, 0, 1, 1, 0
   226,  1, 1,    1,    1,     5.569,       0.5, 0, 0, 0, 0, 1, 1, 0
   227,  1, 1,    1,    1,    19.239,         2, 0, 0, 0, 0, 1, 1, 0
   228,  1, 1,    1,    1,    11.138,         2, 0, 0, 0, 0, 1, 1, 0
   229,  1, 1,    1,    1,     2.633,      1.03, 0, 0, 0, 0, 1, 1, 0
   230,  1, 1,    1,    1,     2.633,      1.03, 0, 0, 0, 0, 1, 1, 0
   231,  1, 1,    1,    1,    16.201,         6, 0, 0, 0, 0, 1, 1, 0
   232,  1, 1,    1,    1,    10.126,       1.1, 0, 0, 0, 0, 1, 1, 0
   233,  1, 1,    1,    1,     9.619,       1.5, 0, 0, 0, 0, 1, 1, 0
   234,  1, 1,    1,    1,    22.277,        17, 0, 0, 0, 0, 1, 1, 0
   235,  1, 1,    1,    1,     8.607,       0.6, 0, 0, 0, 0, 1, 1, 0
   236,  1, 1,    1,    1,    13.568,      4.41, 0, 0, 0, 0, 1, 1, 0
   237,  1, 1,    1,    1,     7.695,       0.8, 0, 0, 0, 0, 1, 1, 0
   238,  1, 1,    1,    1,    10.126,       1.5, 0, 0, 0, 0, 1, 1, 0
   239,  1, 1,    1,    1,     4.493,     1.175, 0, 0, 0, 0, 1, 1, 0
   240,  1, 1,    1,    1,    13.872,       0.6, 0, 0, 0, 0, 1, 1, 0
   241,  1, 1,    1,    1,     7.594,      2.19, 0, 0, 0, 0, 1, 1, 0
   242,  1, 1,    1,    1,    10.632,       0.4, 0, 0, 0, 0, 1, 1, 0
   244,  1, 1,    1,    1,     3.038,       1.4, 0, 0, 0, 0, 1, 1, 0
   246,  1, 1,    1,    1,     1.982,         5, 0, 0, 0, 0, 1, 1, 0
   247,  1, 1,    1,    1,    11.138,       1.5, 0, 0, 0, 0, 1, 1, 0
   248,  1, 1,    1,    1,     3.038,       0.5, 0, 0, 0, 0, 1, 1, 0
   249,  1, 1,    1,    1,     3.038,       0.5, 0, 0, 0, 0, 1, 1, 0
   250,  1, 1,    1,    1,      4.05,       0.5, 0, 0, 0, 0, 1, 1, 0
   251,  1, 1,    1,    1,      4.86,       0.3, 0, 0, 0, 0, 1, 1, 0
   252,  1, 1,    1,    1,    19.239,         7, 0, 0, 0, 0, 1, 1, 0
   253,  1, 1,    1,    1,    22.276,         4, 0, 0, 0, 0, 1, 1, 0
   254,  1, 1,    1,    1,    16.201,         2, 0, 0, 0, 0, 1, 1, 0
   255,  1, 1,    1,    1,    24.302,       1.5, 0, 0, 0, 0, 1, 1, 0
   256,  1, 1,    1,    1,     5.569,         1, 0, 0, 0, 0, 1, 1, 0
   257,  1, 1,    1,    1,     4.303,       0.6, 0, 0, 0, 0, 1, 1, 0
   258,  1, 1,    1,    1,     4.303,       0.6, 0, 0, 0, 0, 1, 1, 0
   259,  1, 1,    1,    1,     11.24,      3.24, 0, 0, 0, 0, 1, 1, 0
   260,  1, 1,    1,    1,     7.088,         1, 0, 0, 0, 0, 1, 1, 0
   261,  1, 1,    1,    1,     2.633,       1.2, 0, 0, 0, 0, 1, 1, 0
   262,  1, 1,    1,    1,    11.341,       1.8, 0, 0, 0, 0, 1, 1, 0
   263,  1, 1,    1,    1,     2.329,       1.1, 0, 0, 0, 0, 1, 1, 0
   264,  1, 1,    1,    1,    40.503,        34, 0, 0, 0, 0, 1, 1, 0
   265,  1, 1,    1,    1,    38.479,        33, 0, 0, 0, 0, 1, 1, 0
   266,  1, 1,    1,    1,     6.075,         1, 0, 0, 0, 0, 1, 1, 0
   267,  1, 1,    1,    1,     13.67,       0.7, 0, 0, 0, 0, 1, 1, 0
   268,  1, 1,    1,    1,     9.923,       1.8, 0, 0, 0, 0, 1, 1, 0
   269,  1, 1,    1,    1,    13.163,       1.5, 0, 0, 0, 0, 1, 1, 0
   270,  1, 1,    1,    1,    10.125,       1.5, 0, 0, 0, 0, 1, 1, 0
   271,  1, 1,    1,    1,    18.227,       4.5, 0, 0, 0, 0, 1, 1, 0
   272,  1, 1,    1,    1,     0.304,       0.1, 0, 0, 0, 0, 1, 1, 0
   273,  1, 1,    1,    1,     0.506,      0.15, 0, 0, 0, 0, 1, 1, 0
   274,  1, 1,    1,    1,     0.202,      0.06, 0, 0, 0, 0, 1, 1, 0
   275,  1, 1,    1,    1,     12.88,       5.8, 0, 0, 0, 0, 1, 1, 0
   276,  1, 1,    1,    1,     8.587,      3.87, 0, 0, 0, 0, 1, 1, 0
   277,  1, 1,    1,    1,     9.619,       1.2, 0, 0, 0, 0, 1, 1, 0
   278,  1, 1,    1,    1,     3.038,       0.5, 0, 0, 0, 0, 1, 1, 0
   279,  1, 1,    1,    1,     8.101,         0, 0, 0, 0, 0, 1, 1, 0
   280,  1, 1,    1,    1,    15.188,         2, 0, 0, 0, 0, 1, 1, 0
   281,  1, 1,    1,    1,      9.62,         2, 0, 0, 0, 0, 1, 1, 0
   282,  1, 1,    1,    1,    17.213,    13.999, 0, 0, 0, 0, 1, 1, 0
   283,  1, 1,    1,    1,    16.202,        13, 0, 0, 0, 0, 1, 1, 0
   284,  1, 1,    1,    1,    13.771,      4.47, 0, 0, 0, 0, 1, 1, 0
   285,  1, 1,    1,    1,    15.189,         4, 0, 0, 0, 0, 1, 1, 0
   286,  1, 1,    1,    1,    10.126,         1, 0, 0, 0, 0, 1, 1, 0
   287,  1, 1,    1,    1,     5.063,         0, 0, 0, 0, 0, 1, 1, 0
   288,  1, 1,    1,    1,     3.037,       2.5, 0, 0, 0, 0, 1, 1, 0
   289,  1, 1,    1,    1,      4.05,     0.501, 0, 0, 0, 0, 1, 1, 0
   290,  1, 1,    1,    1,     21.77,       6.7, 0, 0, 0, 0, 1, 1, 0
   291,  1, 1,    1,    1,    15.999,       1.6, 0, 0, 0, 0, 1, 1, 0
   292,  1, 1,    1,    1,     8.202,      2.37, 0, 0, 0, 0, 1, 1, 0
   293,  1, 1,    1,    1,     5.366,         1, 0, 0, 0, 0, 1, 1, 0
   294,  1, 1,    1,    1,     7.493,       0.3, 0, 0, 0, 0, 1, 1, 0
   295,  1, 1,    1,    1,    13.163,       0.4, 0, 0, 0, 0, 1, 1, 0
   296,  1, 1,    1,    1,     6.582,       1.5, 0, 0, 0, 0, 1, 1, 0
   297,  1, 1,    1,    1,    10.328,      3.36, 0, 0, 0, 0, 1, 1, 0
   298,  1, 1,    1,    1,    14.885,       4.7, 0, 0, 0, 0, 1, 1, 0
   299,  1, 1,    1,    1,    15.188,         4, 0, 0, 0, 0, 1, 1, 0
   301,  1, 1,    1,    1,     5.569,       1.2, 0, 0, 0, 0, 1, 1, 0
   302,  1, 1,    1,    1,    10.835,      3.52, 0, 0, 0, 0, 1, 1, 0
   303,  1, 1,    1,    1,    13.062,      3.77, 0, 0, 0, 0, 1, 1, 0
   304,  1, 1,    1,    1,    25.719,      7.42, 0, 0, 0, 0, 1, 1, 0
   305,  1, 1,    1,    1,     25.72,      7.42, 0, 0, 0, 0, 1, 1, 0
   306,  1, 1,    1,    1,    97.275,     54.72, 0, 0, 0, 0, 1, 1, 0
   307,  1, 1,    1,    1,     62.22,     22.54, 0, 0, 0, 0, 1, 1, 0
   308,  1, 1,    1,    1,    35.918,      13.2, 0, 0, 0, 0, 1, 1, 0
   310,  1, 1,    1,    1,    39.452,     17.47, 0, 0, 0, 0, 1, 1, 0
   311,  1, 1,    1,    1,    30.853,     15.45, 0, 0, 0, 0, 1, 1, 0
   312,  1, 1,    1,    1,    15.492,       0.8, 0, 0, 0, 0, 1, 1, 0
   313,  1, 1,    1,    1,     2.531,       0.5, 0, 0, 0, 0, 1, 1, 0
   314,  1, 1,    1,    1,     3.038,         1, 0, 0, 0, 0, 1, 1, 0
   315,  1, 1,    1,    1,     8.606,       2.1, 0, 0, 0, 0, 1, 1, 0
   316,  1, 1,    1,    1,    11.644,       2.6, 0, 0, 0, 0, 1, 1, 0
   317,  1, 1,    1,    1,     13.67,       3.6, 0, 0, 0, 0, 1, 1, 0
   318,  1, 1,    1,    1,    13.366,      3.85, 0, 0, 0, 0, 1, 1, 0
   319,  1, 1,    1,    1,    19.138,      5.52, 0, 0, 0, 0, 1, 1, 0
   320,  1, 1,    1,    1,    17.214,         3, 0, 0, 0, 0, 1, 1, 0
   321,  1, 1,    1,    1,    18.732,      6.09, 0, 0, 0, 0, 1, 1, 0
   322,  1, 1,    1,    1,    19.138,      6.22, 0, 0, 0, 0, 1, 1, 0
   323,  1, 1,    1,    1,     8.202,      2.66, 0, 0, 0, 0, 1, 1, 0
   324,  1, 1,    1,    1,    15.189,         3, 0, 0, 0, 0, 1, 1, 0
   325,  1, 1,    1,    1,    20.251,         3, 0, 0, 0, 0, 1, 1, 0
   326,  1, 1,    1,    1,    17.821,      5.14, 0, 0, 0, 0, 1, 1, 0
   327,  1, 1,    1,    1,     9.619,         2, 0, 0, 0, 0, 1, 1, 0
   328,  1, 1,    1,    1,     4.557,         1, 0, 0, 0, 0, 1, 1, 0
   329,  1, 1,    1,    1,    51.743,     14.92, 0, 0, 0, 0, 1, 1, 0
   330,  1, 1,    1,    1,     18.53,         2, 0, 0, 0, 0, 1, 1, 0
   332,  1, 1,    1,    1,    13.163,         3, 0, 0, 0, 0, 1, 1, 0
   333,  1, 1,    1,    1,     6.075,       0.5, 0, 0, 0, 0, 1, 1, 0
   334,  1, 1,    1,    1,    16.809,      4.85, 0, 0, 0, 0, 1, 1, 0
   335,  1, 1,    1,    1,     9.113,       2.5, 0, 0, 0, 0, 1, 1, 0
   336,  1, 1,    1,    1,    18.226,       5.4, 0, 0, 0, 0, 1, 1, 0
   337,  1, 1,    1,    1,    18.226,       5.4, 0, 0, 0, 0, 1, 1, 0
   338,  1, 1,    1,    1,     5.063,         0, 0, 0, 0, 0, 1, 1, 0
   341,  1, 1,    1,    1,    18.733,       5.5, 0, 0, 0, 0, 1, 1, 0
   342,  1, 1,    1,    1,    16.809,       3.9, 0, 0, 0, 0, 1, 1, 0
   344,  1, 1,    1,    1,     6.075,       0.5, 0, 0, 0, 0, 1, 1, 0
   345,  1, 1,    1,    1,    12.151,         3, 0, 0, 0, 0, 1, 1, 0
   346,  1, 1,    1,    1,     8.708,     0.701, 0, 0, 0, 0, 1, 1, 0
   347,  1, 1,    1,    1,    19.138,      5.52, 0, 0, 0, 0, 1, 1, 0
   348,  1, 1,    1,    1,     13.67,      3.38, 0, 0, 0, 0, 1, 1, 0
   350,  1, 1,    1,    1,     7.088,       0.5, 0, 0, 0, 0, 1, 1, 0
   352,  1, 1,    1,    1,     3.038,       0.9, 0, 0, 0, 0, 1, 1, 0
   355,  1, 1,    1,    1,    10.429,         2, 0, 0, 0, 0, 1, 1, 0
   356,  1, 1,    1,    1,    11.138,       1.5, 0, 0, 0, 0, 1, 1, 0
   357,  1, 1,    1,    1,    14.581,         1, 0, 0, 0, 0, 1, 1, 0
   360,  1, 1,    1,    1,     6.076,       1.5, 0, 0, 0, 0, 1, 1, 0
   361,  1, 1,    1,    1,     8.303,       1.2, 0, 0, 0, 0, 1, 1, 0
   362,  1, 1,    1,    1,    45.566,        19, 0, 0, 0, 0, 1, 1, 0
   363,  1, 1,    1,    1,    45.566,        15, 0, 0, 0, 0, 1, 1, 0
   364,  1, 1,    1,    1,    91.131,        30, 0, 0, 0, 0, 1, 1, 0
   365,  1, 1,    1,    1,    84.043,        29, 0, 0, 0, 0, 1, 1, 0
   367,  1, 1,    1,    1,     8.101,       0.2, 0, 0, 0, 0, 1, 1, 0
   368,  1, 1,    1,    1,     18.53,         1, 0, 0, 0, 0, 1, 1, 0
   369,  1, 1,    1,    1,     3.544,         1, 0, 0, 0, 0, 1, 1, 0
   371,  1, 1,    1,    1,    24.302,         8, 0, 0, 0, 0, 1, 1, 0
   372,  1, 1,    1,    1,     2.531,       0.5, 0, 0, 0, 0, 1, 1, 0
   373,  1, 1,    1,    1,     6.582,       2.2, 0, 0, 0, 0, 1, 1, 0
   374,  1, 1,    1,    1,    11.139,       1.5, 0, 0, 0, 0, 1, 1, 0
   375,  1, 1,    1,    1,    10.328,       0.5, 0, 0, 0, 0, 1, 1, 0
   376,  1, 1,    1,    1,     7.088,       1.2, 0, 0, 0, 0, 1, 1, 0
...
0 / END OF LOAD DATA, BEGIN FIXED SHUNT DATA
0 / END OF FIXED SHUNT DATA, BEGIN GENERATOR DATA
    17,  1,       140,   119.976,       120,       -10,  1.09088, 0,   233.2, 0, 1, 0, 0, 1, 1, 100,       200,       140, 1, 1, 0, 1, 0, 1, 0, 1, 0, 1
    18,  1,       140,   43.0475,       120,       -10,  1.09091, 0,   233.2, 0, 1, 0, 0, 1, 1, 100,       200,       140, 1, 1, 0, 1, 0, 1, 0, 1, 0, 1
    26,  1,       370,       -10,       220,       -10,  1.09091, 0,   430.5, 0, 1, 0, 0, 1, 1, 100,       370,       290, 1, 1, 0, 1, 0, 1, 0, 1, 0, 1
    26,  2,       360,   210.554,       220,       -10,  1.09091, 0,   421.9, 0, 1, 0, 0, 1, 1, 100,       360,       290, 1, 1, 0, 1, 0, 1, 0, 1, 0, 1
    27,  1,       360,   45.0036,       220,       -10,  1.09091, 0,   421.9, 0, 1, 0, 0, 1, 1, 100,       360,       290, 1, 1, 0, 1, 0, 1, 0, 1, 0, 1
    27,  2,       370,   219.914,       220,       -10,  1.09091, 0,   430.5, 0, 1, 0, 0, 1, 1, 100,       370,       290, 1, 1, 0, 1, 0, 1, 0, 1, 0, 1
    27,  3,       370,       -10,       220,       -10,  1.09091, 0,   430.5, 0, 1, 0, 0, 1, 1, 100,       370,       290, 1, 1, 0, 1, 0, 1, 0, 1, 0, 1
    28,  1,       370,       -10,       220,       -10,   1.0325, 0,   430.5, 0, 1, 0, 0, 1, 1, 100,       370,       290, 1, 1, 0, 1, 0, 1, 0, 1, 0, 1
    28,  2,       370,       -10,       220,       -10,   1.0325, 0,   430.5, 0, 1, 0, 0, 1, 1, 100,       370,       290, 1, 1, 0, 1, 0, 1, 0, 1, 0, 1
    28,  3,       370,       -10,       220,       -10,   1.0325, 0,   430.5, 0, 1, 0, 0, 1, 1, 100,       370,       290, 1, 1, 0, 1, 0, 1, 0, 1, 0, 1
    29,  1,       370,       -10,       220,       -10,   1.0325, 0,   430.5, 0, 1, 0, 0, 1, 1, 100,       370,       290, 1, 1, 0, 1, 0, 1, 0, 1, 0, 1
    29,  2,       370,       -10,       220,       -10,   1.0325, 0,   430.5, 0, 1, 0, 0, 1, 1, 100,       370,       290, 1, 1, 0, 1, 0, 1, 0, 1, 0, 1
    29,  3,       370,       -10,       220,       -10,   1.0325, 0,   430.5, 0, 1, 0, 0, 1, 1, 100,       370,       290, 1, 1, 0, 1, 0, 1, 0, 1, 0, 1
    43,  1,       215,   119.977,       120,       -20,  1.09091, 0,   246.2, 0, 1, 0, 0, 1, 1, 100,       215,       135, 1, 1, 0, 1, 0, 1, 0, 1, 0, 1
    43,  2,         0,         0,       120,       -20,  1.09091, 0,   275.3, 0, 1, 0, 0, 1, 0, 100,     247.8,       135, 1, 1, 0, 1, 0, 1, 0, 1, 0, 1
    43,  3,     247.8,   20.7197,       120,       -20,  1.09091, 0,   275.3, 0, 1, 0, 0, 1, 1, 100,     247.8,       135, 1, 1, 0, 1, 0, 1, 0, 1, 0, 1
    44,  1,       225,   -12.294,       120,       -20,  1.09096, 0,     255, 0, 1, 0, 0, 1, 1, 100,       225,       135, 1, 1, 0, 1, 0, 1, 0, 1, 0, 1
    44,  2,       225,  -2.43726,       120,       -20,  1.09096, 0,     255, 0, 1, 0, 0, 1, 1, 100,       225,       135, 1, 1, 0, 1, 0, 1, 0, 1, 0, 1
    44,  3,         0,         0,       120,       -20,  1.09096, 0,     255, 0, 1, 0, 0, 1, 0, 100,       225,       135, 1, 1, 0, 1, 0, 1, 0, 1, 0, 1
    45,  1,         0,         0,       350,       -40,   1.0325, 0,   610.3, 0, 1, 0, 0, 1, 0, 100,       500,       350, 1, 1, 0, 1, 0, 1, 0, 1, 0, 1
    45,  2,       500,   22.4277,       350,       -40,   1.0325, 0,   610.3, 0, 1, 0, 0, 1, 1, 100,       500,       350, 1, 1, 0, 1, 0, 1, 0, 1, 0, 1
    55,  1,       130,       -20,       120,       -20,  1.09121, 0,     255, 0, 1, 0, 0, 1, 1, 100,       225,       130, 1, 1, 0, 1, 0, 1, 0, 1, 0, 1
    56,  1,       130,   -20.001,       120,   -20.001,  1.09115, 0,     255, 0, 1, 0, 0, 1, 1, 100,       225,       130, 1, 1, 0, 1, 0, 1, 0, 1, 0, 1
    56,  2,       130,   -20.001,       120,   -20.001,  1.09115, 0,     255, 0, 1, 0, 0, 1, 1, 100,       225,       130, 1, 1, 0, 1, 0, 1, 0, 1, 0, 1
    57,  1,       130,       -20,       120,       -20,  1.03336, 0,     255, 0, 1, 0, 0, 1, 1, 100,       225,       130, 1, 1, 0, 1, 0, 1, 0, 1, 0, 1
    58,  1,         0,         0,       120,       -20,  1.03337, 0,     255, 0, 1, 0, 0, 1, 0, 100,       225,       130, 1, 1, 0, 1, 0, 1, 0, 1, 0, 1
    58,  2,       130,   -20.006,       120,   -20.006,  1.03337, 0,     255, 0, 1, 0, 0, 1, 1, 100,       225,       130, 1, 1, 0, 1, 0, 1, 0, 1, 0, 1
    58,  3,       130,   -20.006,       120,   -20.006,  1.03337, 0,     255, 0, 1, 0, 0, 1, 1, 100,       225,       130, 1, 1, 0, 1, 0, 1, 0, 1, 0, 1
    59,  1,      78.5,     33.64,     33.64,         0,  1.08415, 0,    85.4, 0, 1, 0, 0, 1, 1, 100,      78.5,      78.5, 1, 1, 0, 1, 0, 1, 0, 1, 0, 1
    78,  1,       225,   8.24513,       105,         5,  1.09091, 0,   248.3, 0, 1, 0, 0, 1, 1, 100,       225,       140, 1, 1, 0, 1, 0, 1, 0, 1, 0, 1
    78,  2,       225,       105,       105,         5,  1.09091, 0,   248.3, 0, 1, 0, 0, 1, 1, 100,       225,       140, 1, 1, 0, 1, 0, 1, 0, 1, 0, 1
    79,  1,         0,         0,       105,         5,  1.09034, 0,   243.8, 0, 1, 0, 0, 1, 0, 100,       220,       140, 1, 1, 0, 1, 0, 1, 0, 1, 0, 1
    79,  2,         0,         0,       105,         5,  1.09034, 0,   248.3, 0, 1, 0, 0, 1, 0, 100,       225,       140, 1, 1, 0, 1, 0, 1, 0, 1, 0, 1
    79,  3,       225,   16.5743,       105,         5,  1.09034, 0,   248.3, 0, 1, 0, 0, 1, 1, 100,       225,       140, 1, 1, 0, 1, 0, 1, 0, 1, 0, 1
    82,  1,       380,  -16.9664,       192,       -37,  1.02993, 0,   425.8, 0, 1, 0, 0, 1, 1, 100,       380,       220, 1, 1, 0, 1, 0, 1, 0, 1, 0, 1
    82,  2,       370,  -4.67553,       174,       -19,  1.02993, 0,   408.9, 0, 1, 0, 0, 1, 1, 100,       370,       220, 1, 1, 0, 1, 0, 1, 0, 1, 0, 1
   104,  1,       225,   46.9887,       113,       -48,  1.09091, 0,   251.8, 0, 1, 0, 0, 1, 1, 100,       225,       134, 1, 1, 0, 1, 0, 1, 0, 1, 0, 1
   105,  1,       225,   6.24023,       113,       -48,  1.09091, 0,   251.8, 0, 1, 0, 0, 1, 1, 100,       225,       134, 1, 1, 0, 1, 0, 1, 0, 1, 0, 1
   106,  1,       120,   71.0379,        90,        -5,  1.09091, 0,     150, 0, 1, 0, 0, 1, 1, 100,       120,        79, 1, 1, 0, 1, 0, 1, 0, 1, 0, 1
   107,  1,       120,  -4.95126,        90,        -5,  1.09091, 0,     150, 0, 1, 0, 0, 1, 1, 100,       120,        79, 1, 1, 0, 1, 0, 1, 0, 1, 0, 1
   116,  1,         0,         0,        90,       -20,  1.09042, 0,     150, 0, 1, 0, 0, 1, 0, 100,       120,        90, 1, 1, 0, 1, 0, 1, 0, 1, 0, 1
   117,  1,       120,   16.5064,        90,       -20,  1.09046, 0,     150, 0, 1, 0, 0, 1, 1, 100,       120,        70, 1, 1, 0, 1, 0, 1, 0, 1, 0, 1
   118,  1,       110,        33,        68,        33,    1.089, 0,   129.3, 0, 1, 0, 0, 1, 1, 100,       110,        80, 1, 1, 0, 1, 0, 1, 0, 1, 0, 1
   125,  1,       215,     35.04,       113,       -11,  1.09091, 0,   242.9, 0, 1, 0, 0, 1, 1, 100,       215,       160, 1, 1, 0, 1, 0, 1, 0, 1, 0, 1
   126,  1,       225,        84,        84,        -5,  1.09082, 0,   240.2, 0, 1, 0, 0, 1, 1, 100,       225,       140, 1, 1, 0, 1, 0, 1, 0, 1, 0, 1
   126,  2,         0,         0,        80,        -5,  1.09082, 0,   229.4, 0, 1, 0, 0, 1, 0, 100,       215,       160, 1, 1, 0, 1, 0, 1, 0, 1, 0, 1
   127,  1,       225,    -7.498,        79,    -7.498,  1.02869, 0,   238.5, 0, 1, 0, 0, 1, 1, 100,       225,       140, 1, 1, 0, 1, 0, 1, 0, 1, 0, 1
   127,  2,       220,       -10,       100,       -10,  1.02869, 0,   241.7, 0, 1, 0, 0, 1, 1, 100,       220,       160, 1, 1, 0, 1, 0, 1, 0, 1, 0, 1
   132,  1,       125,  -3.67769,        40,       -38,  1.09091, 0,   131.2, 0, 1, 0, 0, 1, 1, 100,       125,        74, 1, 1, 0, 1, 0, 1, 0, 1, 0, 1
   132,  2,       125,   15.9334,        40,       -38,  1.09091, 0,   131.2, 0, 1, 0, 0, 1, 1, 100,       125,        74, 1, 1, 0, 1, 0, 1, 0, 1, 0, 1
   133,  1,         0,         0,        40,       -38,  1.09091, 0,   131.2, 0, 1, 0, 0, 1, 0, 100,       125,        74, 1, 1, 0, 1, 0, 1, 0, 1, 0, 1
   133,  2,       125,   16.4325,        40,       -38,  1.09091, 0,   131.2, 0, 1, 0, 0, 1, 1, 100,       125,        74, 1, 1, 0, 1, 0, 1, 0, 1, 0, 1
   134,  1,         0,         0,        90,         0,  1.08882, 0,     150, 0, 1, 0, 0, 1, 0, 100,       120,       102, 1, 1, 0, 1, 0, 1, 0, 1, 0, 1
   134,  2,       120,    66.904,        90,         0,  1.08882, 0,     150, 0, 1, 0, 0, 1, 1, 100,       120,       100, 1, 1, 0, 1, 0, 1, 0, 1, 0, 1
   135,  1,         0,         0,        90,         0,  1.08867, 0,     150, 0, 1, 0, 0, 1, 0, 100,       120,       102, 1, 1, 0, 1, 0, 1, 0, 1, 0, 1
   146,  1,        50,        12,        12,         0,  1.09012, 0,    51.4, 0, 1, 0, 0, 1, 1, 100,        50,        30, 1, 1, 0, 1, 0, 1, 0, 1, 0, 1
   146,  2,        50,        12,        12,         0,  1.09012, 0,    51.4, 0, 1, 0, 0, 1, 1, 100,        50,        30, 1, 1, 0, 1, 0, 1, 0, 1, 0, 1
   147,  1,         0,         0,        90,         0,  1.09011, 0,     150, 0, 1, 0, 0, 1, 0, 100,       120,        90, 1, 1, 0, 1, 0, 1, 0, 1, 0, 1
   148,  1,        90,   37.8554,       120,         0,  1.09091, 0,   252.4, 0, 1, 0, 0, 1, 1, 100,       222,        90, 1, 1, 0, 1, 0, 1, 0, 1, 0, 1
   148,  2,         0,         0,       120,         0,  1.09091, 0,   237.5, 0, 1, 0, 0, 1, 0, 100,       205,       135, 1, 1, 0, 1, 0, 1, 0, 1, 0, 1
   148,  3,         0,         0,       120,         0,  1.09091, 0,   237.5, 0, 1, 0, 0, 1, 0, 100,       205,       135, 1, 1, 0, 1, 0, 1, 0, 1, 0, 1
   148,  4,        90,  0.151315,       120,         0,  1.09091, 0,   252.4, 0, 1, 0, 0, 1, 1, 100,       222,        90, 1, 1, 0, 1, 0, 1, 0, 1, 0, 1
   150,  1,        90,         0,       120,         0,  1.03246, 0,   252.4, 0, 1, 0, 0, 1, 1, 100,       222,        90, 1, 1, 0, 1, 0, 1, 0, 1, 0, 1
   151,  1,        90,         0,       120,         0,   1.0325, 0,   252.4, 0, 1, 0, 0, 1, 1, 100,       222,        90, 1, 1, 0, 1, 0, 1, 0, 1, 0, 1
   151,  2,        90,         0,       120,         0,   1.0325, 0,   252.4, 0, 1, 0, 0, 1, 1, 100,       222,        90, 1, 1, 0, 1, 0, 1, 0, 1, 0, 1
   155,  1,       235,  0.232319,       120,         0,  1.09091, 0,   263.9, 0, 1, 0, 0, 1, 1, 100,       235,        94, 1, 1, 0, 1, 0, 1, 0, 1, 0, 1
   155,  2,       235,   11.1041,       120,         0,  1.09091, 0,   263.9, 0, 1, 0, 0, 1, 1, 100,       235,        94, 1, 1, 0, 1, 0, 1, 0, 1, 0, 1
   155,  3,         0,         0,       120,         0,  1.09091, 0,   237.5, 0, 1, 0, 0, 1, 0, 100,       205,       130, 1, 1, 0, 1, 0, 1, 0, 1, 0, 1
   155,  4,       261,         0,       120,         0,  1.09091, 0,   287.3, 0, 1, 0, 0, 1, 1, 100,       261,       104, 1, 1, 0, 1, 0, 1, 0, 1, 0, 1
   156,  1,         0,         0,       120,         0,  1.09091, 0,   237.5, 0, 1, 0, 0, 1, 0, 100,       205,       130, 1, 1, 0, 1, 0, 1, 0, 1, 0, 1
   156,  2,       205,   12.5903,       120,         0,  1.09091, 0,   237.5, 0, 1, 0, 0, 1, 1, 100,       205,       130, 1, 1, 0, 1, 0, 1, 0, 1, 0, 1
   156,  3,       206,   10.0689,       120,         0,  1.09091, 0,   238.4, 0, 1, 0, 0, 1, 1, 100,       206,       120, 1, 1, 0, 1, 0, 1, 0, 1, 0, 1
   156,  4,       206,   5.87534,       120,         0,  1.09091, 0,   238.4, 0, 1, 0, 0, 1, 1, 100,       206,       120, 1, 1, 0, 1, 0, 1, 0, 1, 0, 1
   159,  1,       206,       120,       120,         0,  1.00535, 0,   238.4, 0, 1, 0, 0, 1, 1, 100,       206,       120, 1, 1, 0, 1, 0, 1, 0, 1, 0, 1
   165,  1,       200,    -0.009,       120,    -0.009,  1.09084, 0,   233.2, 0, 1, 0, 0, 1, 1, 100,       200,       150, 1, 1, 0, 1, 0, 1, 0, 1, 0, 1
   165,  2,       200,   9.20043,       120,    -0.009,  1.09084, 0,   233.2, 0, 1, 0, 0, 1, 1, 100,       200,       150, 1, 1, 0, 1, 0, 1, 0, 1, 0, 1
   166,  1,       200,   119.931,       120,         0,  1.09091, 0,   233.2, 0, 1, 0, 0, 1, 1, 100,       200,       150, 1, 1, 0, 1, 0, 1, 0, 1, 0, 1
   166,  2,       200,   27.8129,       120,         0,  1.09091, 0,   233.2, 0, 1, 0, 0, 1, 1, 100,       200,       150, 1, 1, 0, 1, 0, 1, 0, 1, 0, 1
   205,  1,       179,  -54.0932,       110,       -60,   1.0325, 0,   210.1, 0, 1, 0, 0, 1, 1, 100,       179,       140, 1, 1, 0, 1, 0, 1, 0, 1, 0, 1
   205,  2,       179,  -50.3535,       110,       -60,   1.0325, 0,   210.1, 0, 1, 0, 0, 1, 1, 100,       179,       140, 1, 1, 0, 1, 0, 1, 0, 1, 0, 1
   205,  3,         0,         0,       110,       -60,   1.0325, 0,   210.1, 0, 1, 0, 0, 1, 0, 100,       179,       140, 1, 1, 0, 1, 0, 1, 0, 1, 0, 1
   206,  1,       179,   23.1183,       110,       -60,   1.0325, 0,   210.1, 0, 1, 0, 0, 1, 1, 100,       179,       140, 1, 1, 0, 1, 0, 1, 0, 1, 0, 1
   215,  1,    37.079,         0,        20,         0,  1.08646, 0,    58.5, 0, 1, 0, 0, 1, 1, 100,    37.079,    37.079, 1, 1, 0, 1, 0, 1, 0, 1, 0, 1
   215,  2,    33.708,    5.8236,        20,         0,  1.08646, 0,    53.9, 0, 1, 0, 0, 1, 1, 100,    33.708,    33.708, 1, 1, 0, 1, 0, 1, 0, 1, 0, 1
   215,  3,    33.708,         0,        20,         0,  1.08646, 0,    53.9, 0, 1, 0, 0, 1, 1, 100,    33.708,    33.708, 1, 1, 0, 1, 0, 1, 0, 1, 0, 1
   215,  4,    15.506,         0,        20,         0,  1.08646, 0,    30.5, 0, 1, 0, 0, 1, 1, 100,    15.506,    15.506, 1, 1, 0, 1, 0, 1, 0, 1, 0, 1
   239,  1,         4,         8,         8,         0,  1.03337, 0,    15.4, 0, 1, 0, 0, 1, 1, 100,         4,         4, 1, 1, 0, 1, 0, 1, 0, 1, 0, 1
   246,  1,       370,   89.8042,       220,       -14,  1.03502, 0,   430.5, 0, 1, 0, 0, 1, 1, 100,       370,       290, 1, 1, 0, 1, 0, 1, 0, 1, 0, 1
   291,  1,         2,         2,         2,         0,  1.06439, 0,     3.2, 0, 1, 0, 0, 1, 1, 100,         2,         2, 1, 1, 0, 1, 0, 1, 0, 1, 0, 1
   294,  1,         3,         2,         2,         0,  1.05278, 0,     4.8, 0, 1, 0, 0, 1, 1, 100,         3,         3, 1, 1, 0, 1, 0, 1, 0, 1, 0, 1
   306,  1,     9.167,         7,         7,         0,  1.05332, 0,      24, 0, 1, 0, 0, 1, 1, 100,     9.167,     9.167, 1, 1, 0, 1, 0, 1, 0, 1, 0, 1
   306,  2,    16.296,         7,         7,         0,  1.05332, 0,    27.9, 0, 1, 0, 0, 1, 1, 100,    16.296,    16.296, 1, 1, 0, 1, 0, 1, 0, 1, 0, 1
   306,  3,    11.204,     7.616,     7.616,         6,  1.05332, 0,      31, 0, 1, 0, 0, 1, 1, 100,    11.204,    11.204, 1, 1, 0, 1, 0, 1, 0, 1, 0, 1
   306,  4,     9.167,         7,         7,         0,  1.05332, 0,    26.9, 0, 1, 0, 0, 1, 1, 100,     9.167,     9.167, 1, 1, 0, 1, 0, 1, 0, 1, 0, 1
   306,  5,     9.167,     7.928,     7.928,         0,  1.05332, 0,    28.1, 0, 1, 0, 0, 1, 1, 100,     9.167,     9.167, 1, 1, 0, 1, 0, 1, 0, 1, 0, 1
   307,  1,      36.5,        15,        15,         0,  1.05854, 0,      57, 0, 1, 0, 0, 1, 1, 100,      36.5,      36.5, 1, 1, 0, 1, 0, 1, 0, 1, 0, 1
   307,  2,      36.5,        15,        15,         0,  1.05854, 0,      57, 0, 1, 0, 0, 1, 1, 100,      36.5,      36.5, 1, 1, 0, 1, 0, 1, 0, 1, 0, 1
   308,  1,        32,        15,        15,         0,    1.067, 0,    36.7, 0, 1, 0, 0, 1, 1, 100,        32,        32, 1, 1, 0, 1, 0, 1, 0, 1, 0, 1
   308,  2,        40,    17.596,    17.596,         0,    1.067, 0,    57.7, 0, 1, 0, 0, 1, 1, 100,        40,        40, 1, 1, 0, 1, 0, 1, 0, 1, 0, 1
   310,  1,        35,        20,        20,         0,  1.07303, 0,    53.9, 0, 1, 0, 0, 1, 1, 100,        35,        35, 1, 1, 0, 1, 0, 1, 0, 1, 0, 1
   310,  2,        75,    27.247,    27.247,         0,  1.07303, 0,   103.6, 0, 1, 0, 0, 1, 1, 100,        75,        75, 1, 1, 0, 1, 0, 1, 0, 1, 0, 1
   311,  1,        45,        40,        40,         0,  1.06272, 0,      64, 0, 1, 0, 0, 1, 1, 100,        45,        45, 1, 1, 0, 1, 0, 1, 0, 1, 0, 1
   362,  1,      37.8,        12,        12,         0,  1.08888, 0,    47.8, 0, 1, 0, 0, 1, 1, 100,      37.8,      37.8, 1, 1, 0, 1, 0, 1, 0, 1, 0, 1
   363,  1,      37.8,        12,        12,         0,  1.06039, 0,    47.8, 0, 1, 0, 0, 1, 1, 100,      37.8,      37.8, 1, 1, 0, 1, 0, 1, 0, 1, 0, 1
   364,  1,      37.8,   11.8318,        12,         0,   1.1049, 0,    47.8, 0, 1, 0, 0, 1, 1, 100,      37.8,      37.8, 1, 1, 0, 1, 0, 1, 0, 1, 0, 1
   364,  2,        45,   7.03822,        12,         0,   1.1049, 0,      71, 0, 1, 0, 0, 1, 1, 100,        45,        45, 1, 1, 0, 1, 0, 1, 0, 1, 0, 1
   365,  1,      37.8,        12,        12,         0,  1.06981, 0,    47.8, 0, 1, 0, 0, 1, 1, 100,      37.8,      37.8, 1, 1, 0, 1, 0, 1, 0, 1, 0, 1
   365,  2,      37.8,        12,        12,         0,  1.06981, 0,    47.8, 0, 1, 0, 0, 1, 1, 100,      37.8,      37.8, 1, 1, 0, 1, 0, 1, 0, 1, 0, 1
   382,  1,        15, 0.0149313,        10,         0,  1.08182, 0,    55.9, 0, 1, 0, 0, 1, 1, 100,        55,        15, 1, 1, 0, 1, 0, 1, 0, 1, 0, 1
   382,  2,       120,   84.8598,       120,       -10,  1.08182, 0,   255.9, 0, 1, 0, 0, 1, 1, 100,       226,       120, 1, 1, 0, 1, 0, 1, 0, 1, 0, 1
   383,  1,        15,         0,        10,         0,  1.10054, 0,    55.9, 0, 1, 0, 0, 1, 1, 100,        55,        15, 1, 1, 0, 1, 0, 1, 0, 1, 0, 1
   386,  1,         3,         2,         2,         0,  1.05805, 0,     4.8, 0, 1, 0, 0, 1, 1, 100,         3,         3, 1, 1, 0, 1, 0, 1, 0, 1, 0, 1
   421,  1,         4,         4,         4,         0,  1.04857, 0,     7.7, 0, 1, 0, 0, 1, 1, 100,         4,         4, 1, 1, 0, 1, 0, 1, 0, 1, 0, 1
   431,  1,         7,   5.90765,         8,         0,  1.08943, 0,    13.6, 0, 1, 0, 0, 1, 1, 100,         7,         7, 1, 1, 0, 1, 0, 1, 0, 1, 0, 1
   440,  1,       2.5,         2,         2,         0,   1.0288, 0,     3.6, 0, 1, 0, 0, 1, 1, 100,       2.5,       2.5, 1, 1, 0, 1, 0, 1, 0, 1, 0, 1
   447,  1,       3.5,   17.0797,        20,         0,   1.0498, 0,    21.3, 0, 1, 0, 0, 1, 1, 100,       3.5,       3.5, 1, 1, 0, 1, 0, 1, 0, 1, 0, 1
   447,  2,       3.5,  0.691168,        20,         0,   1.0498, 0,    21.3, 0, 1, 0, 0, 1, 1, 100,       3.5,       3.5, 1, 1, 0, 1, 0, 1, 0, 1, 0, 1
   463,  1,         0,         2,         2,         0,   1.0465, 0,       4, 0, 1, 0, 0, 1, 1, 100,         0,         0, 1, 1, 0, 1, 0, 1, 0, 1, 0, 1
   482,  1,       1.4,       0.7,       0.7,         0,  1.02656, 0,     1.7, 0, 1, 0, 0, 1, 1, 100,       1.4,       1.4, 1, 1, 0, 1, 0, 1, 0, 1, 0, 1
   490,  1,       3.5,         3,         3,         0,  1.05535, 0,     5.3, 0, 1, 0, 0, 1, 1, 100,       3.5,       3.5, 1, 1, 0, 1, 0, 1, 0, 1, 0, 1
   522,  1,         0,         0,         1,         0,  1.06929, 0,     1.9, 0, 1, 0, 0, 1, 1, 100,         0,         0, 1, 1, 0, 1, 0, 1, 0, 1, 0, 1
   533,  1,       0.5,         1,         1,         0,  1.07198, 0,     1.9, 0, 1, 0, 0, 1, 1, 100,       0.5,       0.5, 1, 1, 0, 1, 0, 1, 0, 1, 0, 1
   534,  1,     35.89,        14,        14,         0,  1.06429, 0,    53.9, 0, 1, 0, 0, 1, 1, 100,     35.89,     35.89, 1, 1, 0, 1, 0, 1, 0, 1, 0, 1
   534,  2,    22.086,        14,        14,         0,  1.06429, 0,    34.9, 0, 1, 0, 0, 1, 1, 100,    22.086,    22.086, 1, 1, 0, 1, 0, 1, 0, 1, 0, 1
   534,  3,    22.086,        14,        14,         0,  1.06429, 0,    34.9, 0, 1, 0, 0, 1, 1, 100,    22.086,    22.086, 1, 1, 0, 1, 0, 1, 0, 1, 0, 1
   534,  4,    72.469,    24.001,    24.001,         0,  1.06429, 0,   107.7, 0, 1, 0, 0, 1, 1, 100,    72.469,    72.469, 1, 1, 0, 1, 0, 1, 0, 1, 0, 1
   534,  5,    72.469,    24.001,    24.001,         0,  1.06429, 0,   107.7, 0, 1, 0, 0, 1, 1, 100,    72.469,    72.469, 1, 1, 0, 1, 0, 1, 0, 1, 0, 1
   535,  1,    24.573,      17.5,      17.5,         0,  1.05783, 0,    36.5, 0, 1, 0, 0, 1, 1, 100,    24.573,    24.573, 1, 1, 0, 1, 0, 1, 0, 1, 0, 1
   535,  2,    23.805,      17.5,      17.5,         0,  1.05783, 0,    35.6, 0, 1, 0, 0, 1, 1, 100,    23.805,    23.805, 1, 1, 0, 1, 0, 1, 0, 1, 0, 1
   535,  3,     95.99,    28.002,    28.002,         0,  1.05783, 0,   128.1, 0, 1, 0, 0, 1, 1, 100,     95.99,     95.99, 1, 1, 0, 1, 0, 1, 0, 1, 0, 1
   535,  4,    80.631,    28.002,    28.002,         0,  1.05783, 0,   108.7, 0, 1, 0, 0, 1, 1, 100,    80.631,    80.631, 1, 1, 0, 1, 0, 1, 0, 1, 0, 1
   549,  1,       1.4,       0.7,       0.7,         0,   1.0394, 0,     1.7, 0, 1, 0, 0, 1, 1, 100,       1.4,       1.4, 1, 1, 0, 1, 0, 1, 0, 1, 0, 1
   557,  1,    25.724,     5.052,     5.052,         0,  1.04037, 0,    34.4, 0, 1, 0, 0, 1, 1, 100,    25.724,    25.724, 1, 1, 0, 1, 0, 1, 0, 1, 0, 1
   557,  2,    21.184,     5.052,     5.052,         0,  1.04037, 0,    28.5, 0, 1, 0, 0, 1, 1, 100,    21.184,    21.184, 1, 1, 0, 1, 0, 1, 0, 1, 0, 1
   557,  3,    19.671,         5,         5,         0,  1.04037, 0,    26.5, 0, 1, 0, 0, 1, 1, 100,    19.671,    19.671, 1, 1, 0, 1, 0, 1, 0, 1, 0, 1
   557,  4,    22.697,     5.052,     5.052,         0,  1.04037, 0,    30.4, 0, 1, 0, 0, 1, 1, 100,    22.697,    22.697, 1, 1, 0, 1, 0, 1, 0, 1, 0, 1
   557,  5,    25.724,     5.052,     5.052,         0,  1.04037, 0,    34.4, 0, 1, 0, 0, 1, 1, 100,    25.724,    25.724, 1, 1, 0, 1, 0, 1, 0, 1, 0, 1
   558,  1,    31.032,     5.064,     5.064,         0,  1.03685, 0,    34.4, 0, 1, 0, 0, 1, 1, 100,    31.032,    31.032, 1, 1, 0, 1, 0, 1, 0, 1, 0, 1
   558,  2,    31.032,     5.064,     5.064,         0,  1.03685, 0,    34.4, 0, 1, 0, 0, 1, 1, 100,    31.032,    31.032, 1, 1, 0, 1, 0, 1, 0, 1, 0, 1
   558,  3,    22.817,         5,         5,         0,  1.03685, 0,    26.5, 0, 1, 0, 0, 1, 1, 100,    22.817,    22.817, 1, 1, 0, 1, 0, 1, 0, 1, 0, 1
   558,  4,    30.119,     5.064,     5.064,         0,  1.03685, 0,    34.4, 0, 1, 0, 0, 1, 1, 100,    30.119,    30.119, 1, 1, 0, 1, 0, 1, 0, 1, 0, 1
   594,  1,      2.58,      1.35,      1.35,         0,  1.06495, 0,     4.5, 0, 1, 0, 0, 1, 1, 100,      2.58,      2.58, 1, 1, 0, 1, 0, 1, 0, 1, 0, 1
   601,  1,      5.05,      2.24,      2.24,         0,  1.06191, 0,     5.5, 0, 1, 0, 0, 1, 1, 100,      5.05,      5.05, 1, 1, 0, 1, 0, 1, 0, 1, 0, 1
   622,  1,       110,   5.34319,        30,         0,   1.0778, 0,     114, 0, 1, 0, 0, 1, 1, 100,       110,       110, 1, 1, 0, 1, 0, 1, 0, 1, 0, 1
   622,  2,         0,         0,        30,         0,   1.0778, 0,    65.3, 0, 1, 0, 0, 1, 0, 100,         0,         0, 1, 1, 0, 1, 0, 1, 0, 1, 0, 1
   626,  1,       2.8,         0,      1.12,         0,  1.07287, 0,       3, 0, 1, 0, 0, 1, 1, 100,       2.8,       2.8, 1, 1, 0, 1, 0, 1, 0, 1, 0, 1
   630,  1,      5.61,   1.79205,      3.14,         0,  1.06945, 0,     6.4, 0, 1, 0, 0, 1, 1, 100,      5.61,      5.61, 1, 1, 0, 1, 0, 1, 0, 1, 0, 1
   631,  1,      6.73,    1.9289,      3.14,         0,  1.06942, 0,     7.4, 0, 1, 0, 0, 1, 1, 100,      6.73,      6.73, 1, 1, 0, 1, 0, 1, 0, 1, 0, 1
   655,  1,      1.23,      0.45,      0.45,         0,  1.03169, 0,     1.3, 0, 1, 0, 0, 1, 1, 100,      1.23,      1.23, 1, 1, 0, 1, 0, 1, 0, 1, 0, 1
   660,  1,       135,   44.7218,       120,       -20,  1.08206, 0,     255, 0, 1, 0, 0, 1, 1, 100,       225,       135, 1, 1, 0, 1, 0, 1, 0, 1, 0, 1
   661,  1,       135,   38.2967,       120,       -20,  1.08182, 0,     255, 0, 1, 0, 0, 1, 1, 100,       225,       135, 1, 1, 0, 1, 0, 1, 0, 1, 0, 1
   667,  1,      1.91,      1.01,      1.01,         0,  1.03727, 0,     2.2, 0, 1, 0, 0, 1, 1, 100,      1.91,      1.91, 1, 1, 0, 1, 0, 1, 0, 1, 0, 1
   671,  1,      9.53,         0,      3.36,         0,  1.06812, 0,    10.1, 0, 1, 0, 0, 1, 1, 100,      9.53,      9.53, 1, 1, 0, 1, 0, 1, 0, 1, 0, 1
   673,  1,      3.36,      1.12,      1.12,         0,  1.06495, 0,     4.4, 0, 1, 0, 0, 1, 1, 100,      3.36,      3.36, 1, 1, 0, 1, 0, 1, 0, 1, 0, 1
   681,  1,       190,         0,        30,         0,  1.08024, 0,   192.4, 0, 1, 0, 0, 1, 1, 100,       190,       190, 1, 1, 0, 1, 0, 1, 0, 1, 0, 1
   681,  2,    24.998,         0,        30,         0,  1.08024, 0,    77.5, 0, 1, 0, 0, 1, 1, 100,    24.998,    24.998, 1, 1, 0, 1, 0, 1, 0, 1, 0, 1
   687,  1,     11.21,         0,      5.61,         0,  1.07512, 0,    12.5, 0, 1, 0, 0, 1, 1, 100,     11.21,     11.21, 1, 1, 0, 1, 0, 1, 0, 1, 0, 1
   699,  1,      6.73,         0,      3.36,         0,   1.0746, 0,     7.5, 0, 1, 0, 0, 1, 1, 100,      6.73,      6.73, 1, 1, 0, 1, 0, 1, 0, 1, 0, 1
   702,  1,      1.12,  0.400483,      1.12,         0,   1.0721, 0,     1.6, 0, 1, 0, 0, 1, 1, 100,      1.12,      1.12, 1, 1, 0, 1, 0, 1, 0, 1, 0, 1
   712,  1,        10,         4,         4,         0,  1.07103, 0,    10.8, 0, 1, 0, 0, 1, 1, 100,        10,        10, 1, 1, 0, 1, 0, 1, 0, 1, 0, 1
   718,  1,      1.57,      1.12,      1.12,         0,  1.03111, 0,     1.9, 0, 1, 0, 0, 1, 1, 100,      1.57,      1.57, 1, 1, 0, 1, 0, 1, 0, 1, 0, 1
   722,  1,       2.8,      1.12,      1.12,         0,  1.06069, 0,       3, 0, 1, 0, 0, 1, 1, 100,       2.8,       2.8, 1, 1, 0, 1, 0, 1, 0, 1, 0, 1
   731,  1,      1.68,      0.56,      0.56,         0,  1.06199, 0,     4.3, 0, 1, 0, 0, 1, 1, 100,      1.68,      1.68, 1, 1, 0, 1, 0, 1, 0, 1, 0, 1
   736,  1,       130,  -1.98744,       120,       -20,  1.08182, 0,     255, 0, 1, 0, 0, 1, 1, 100,       225,       130, 1, 1, 0, 1, 0, 1, 0, 1, 0, 1
   740,  1,      2.24,         0,         0,         0,  1.06599, 0,     4.3, 0, 1, 0, 0, 1, 1, 100,      2.24,      2.24, 1, 1, 0, 1, 0, 1, 0, 1, 0, 1
   747,  1,      5.83,  0.996481,      3.36,         0,  1.04853, 0,     6.7, 0, 1, 0, 0, 1, 1, 100,      5.83,      5.83, 1, 1, 0, 1, 0, 1, 0, 1, 0, 1
   759,  1,        90,         0,        30,         0,   1.0699, 0,   105.2, 0, 1, 0, 0, 1, 1, 100,        90,        90, 1, 1, 0, 1, 0, 1, 0, 1, 0, 1
   760,  1,         0,         0,         0,         0,  1.06824, 0,     1.3, 0, 1, 0, 0, 1, 0, 100,         0,         0, 1, 1, 0, 1, 0, 1, 0, 1, 0, 1
...